****** HSPICE -- P-2019.06-SP1-1 win64 (Sep 27 2019) ******
Input File: SEU_TESTING_MAIN.sp
lic:
lic: FLEXlm: SDK_12.3
lic: USER:   travi                HOSTNAME: HIMANSHU
lic: HOSTID: "8cf8c5b11dcc"       PID:      40368
lic: Using FLEXlm license file:
lic: 27000@HIMANSHU
lic: Checkout 1 hspice
lic: License/Maintenance for hspice will expire on 30-dec-2030/2020.12
lic: 1(in_use)/99(total) FLOATING license(s) on SERVER 27000@HIMANSHU
lic:

 init: begin read circuit files, cpu clock= 2.99E-01
       option search = C:/synopsys/Hspice_P-2019.06-SP1-1/parts/behave/
       option search = C:/synopsys/Hspice_P-2019.06-SP1-1/parts/AD/
       option search = C:/synopsys/Hspice_P-2019.06-SP1-1/parts/XILINX/
       option search = C:/synopsys/Hspice_P-2019.06-SP1-1/parts/TLINE/
       option search = C:/synopsys/Hspice_P-2019.06-SP1-1/parts/TI/
       option search = C:/synopsys/Hspice_P-2019.06-SP1-1/parts/SIGNET/
       option search = C:/synopsys/Hspice_P-2019.06-SP1-1/parts/PCI/
       option search = C:/synopsys/Hspice_P-2019.06-SP1-1/parts/LIN_TEC
                         H/
       option search = C:/synopsys/Hspice_P-2019.06-SP1-1/parts/PET/
       option search = C:/synopsys/Hspice_P-2019.06-SP1-1/parts/DI0/
       option search = C:/synopsys/Hspice_P-2019.06-SP1-1/parts/COMLINE
                         /
       option search = C:/synopsys/Hspice_P-2019.06-SP1-1/parts/BURR_BR
                         M/
       option search = C:/synopsys/Hspice_P-2019.06-SP1-1/parts/BJT/
       option post =     2.00
       option nomod
 init: end read circuit files, cpu clock= 3.11E-01 peak memory=      77 mb
 init: begin check errors, cpu clock= 3.11E-01
 init: end check errors, cpu clock= 3.28E-01 peak memory=      77 mb
 init: begin setup matrix, pivot=     0 cpu clock= 3.28E-01
       establish matrix -- done, cpu clock= 3.28E-01 peak memory=      77 mb
       re-order matrix -- done, cpu clock= 3.29E-01 peak memory=      77 mb
 init: end setup matrix, cpu clock= 3.29E-01 peak memory=      77 mb
 dcop: begin dcop, cpu clock= 3.29E-01
 dcop: end dcop, cpu clock= 3.32E-01 peak memory=      77 mb tot_iter=       4
C:\Users\travi\DSA\12TSram\SEU_TESTING_MAIN.tr0
 sweep: tran tran0  begin, stop_t= 6.00e-09  #sweeps= 6001 cpu clock= 1.75e+09
 tran: time= 8.4090e-10 tot_iter=      27 conv_iter=      14 cpu clock= -1.60e+06
 tran: time= 1.3743e-09 tot_iter=      29 conv_iter=      16 cpu clock= -1.60e+06
 tran: time= 1.8026e-09 tot_iter=      69 conv_iter=      41 cpu clock= -1.60e+06
 tran: time= 2.5882e-09 tot_iter=      77 conv_iter=      45 cpu clock= -1.60e+06
 tran: time= 3.1882e-09 tot_iter=      80 conv_iter=      47 cpu clock= -1.60e+06
 tran: time= 3.7882e-09 tot_iter=      82 conv_iter=      49 cpu clock= -1.60e+06
 tran: time= 4.3882e-09 tot_iter=      84 conv_iter=      51 cpu clock= -1.60e+06
 tran: time= 4.9882e-09 tot_iter=      86 conv_iter=      53 cpu clock= -1.60e+06
 tran: time= 5.5882e-09 tot_iter=      88 conv_iter=      55 cpu clock= -1.60e+06
 sweep: tran tran0    end,  cpu clock=  -1.60e+06  peak memory=   77.55 mb
>info:         ***** hspice job concluded
 lic: Release hspice token(s)
